LTspice 24.1.10 for Windows
Circuit: C:\Users\Eric\OneDrive\Productivity\E.R.I.C\PROFESSIONAL\ELECTRICAL_ENGINEERING_GENERAL\Training_Modules\01_LDO_Regulator\LTSpice\Stage01_TB_TL431\Stage01_TB_TL431_Ri_Sweep_5V.net
Start Time: Sat Sep 27 17:12:03 2025
solver = Normal
Maximum thread count: 16
tnom = 27
temp = 27
method = modified trap
Direct Newton iteration for .op point succeeded.
Total elapsed time: 1.512 seconds.

Files loaded:
C:\Users\Eric\OneDrive\Productivity\E.R.I.C\PROFESSIONAL\ELECTRICAL_ENGINEERING_GENERAL\Training_Modules\01_LDO_Regulator\LTSpice\Stage01_TB_TL431\Stage01_TB_TL431_Ri_Sweep_5V.net
C:\Users\Eric\AppData\Local\LTspice\lib\sub\TL431.sub

param: Ri=6262.5386475 at 6262.5386475
