LTspice 24.1.10 for Windows
Circuit: C:\Users\Eric\OneDrive\Productivity\E.R.I.C\PROFESSIONAL\ELECTRICAL_ENGINEERING_GENERAL\Training_Modules\01_LDO_Regulator\LTSpice\Stage01_TB_TL431\Stage01_TB_TL431.net
Start Time: Thu Sep 25 22:19:21 2025
solver = Normal
Maximum thread count: 16
tnom = 27
temp = 27
method = modified trap
Direct Newton iteration for .op point succeeded.
Total elapsed time: 0.380 seconds.

Files loaded:
C:\Users\Eric\OneDrive\Productivity\E.R.I.C\PROFESSIONAL\ELECTRICAL_ENGINEERING_GENERAL\Training_Modules\01_LDO_Regulator\LTSpice\Stage01_TB_TL431\Stage01_TB_TL431.net
C:\Users\Eric\AppData\Local\LTspice\lib\sub\TL431.sub

