LTspice 24.1.10 for Windows
Circuit: C:\Users\Eric\OneDrive\Productivity\E.R.I.C\PROFESSIONAL\ELECTRICAL_ENGINEERING_GENERAL\Training_Modules\01_LDO_Regulator\LTSpice\Stage03_TB_LM358\Stage03_TB_LM358.net
Start Time: Tue Sep 30 23:14:03 2025
solver = Normal
Maximum thread count: 16
tnom = 27
temp = 27
method = modified trap
Direct Newton iteration for .op point succeeded.
Total elapsed time: 0.046 seconds.

Files loaded:
C:\Users\Eric\OneDrive\Productivity\E.R.I.C\PROFESSIONAL\ELECTRICAL_ENGINEERING_GENERAL\Training_Modules\01_LDO_Regulator\LTSpice\Stage03_TB_LM358\Stage03_TB_LM358.net
C:\Users\Eric\OneDrive\Productivity\E.R.I.C\PROFESSIONAL\ELECTRICAL_ENGINEERING_GENERAL\Training_Modules\01_LDO_Regulator\LTSpice\Stage03_TB_LM358\LM358.lib

