LTspice 24.1.10 for Windows
Circuit: C:\Users\Eric\OneDrive\Productivity\E.R.I.C\PROFESSIONAL\ELECTRICAL_ENGINEERING_GENERAL\Training_Modules\01_LDO_Regulator\LTSpice\Stage02_TB_Divider\Stage02_TB_Divider.net
Start Time: Tue Sep 30 13:52:18 2025
solver = Normal
Maximum thread count: 16
tnom = 27
temp = 27
method = modified trap
Direct Newton iteration for .op point succeeded.
Total elapsed time: 1.317 seconds.

Files loaded:
C:\Users\Eric\OneDrive\Productivity\E.R.I.C\PROFESSIONAL\ELECTRICAL_ENGINEERING_GENERAL\Training_Modules\01_LDO_Regulator\LTSpice\Stage02_TB_Divider\Stage02_TB_Divider.net

r2nom: R2swp=30993.9391929 at 30993.9391929
