LTspice 24.1.10 for Windows
Circuit: C:\Users\Eric\OneDrive\Productivity\E.R.I.C\PROFESSIONAL\ELECTRICAL_ENGINEERING_GENERAL\Training_Modules\01_LDO_Regulator\LTSpice\Stage05_TB_Full_LDO\Stage05_TB_Full_LDO.net
Start Time: Thu Oct  2 12:25:29 2025
solver = Normal
Maximum thread count: 16
tnom = 27
temp = 27
method = modified trap
Direct Newton iteration failed to find .op point.  (Use ".option noopiter" to skip.)
Starting Gmin stepping
Gmin = 10
Gmin = 1.07374
Gmin = 0.115292
Gmin = 0.0123794
Gmin = 0.00132923
Gmin = 0.000142725
Gmin = 1.5325e-05
Gmin = 1.6455e-06
Gmin = 1.76685e-07
Gmin = 1.89714e-08
Gmin = 2.03704e-09
Gmin = 2.18725e-10
Gmin = 2.34854e-11
Gmin = 2.52173e-12
Gmin = 2.70769e-13
Gmin = 0
Gmin stepping succeeded in finding the operating point.

Total elapsed time: 0.111 seconds.

Files loaded:
C:\Users\Eric\OneDrive\Productivity\E.R.I.C\PROFESSIONAL\ELECTRICAL_ENGINEERING_GENERAL\Training_Modules\01_LDO_Regulator\LTSpice\Stage05_TB_Full_LDO\Stage05_TB_Full_LDO.net
C:\Users\Eric\AppData\Local\LTspice\lib\cmp\standard.bjt
C:\Users\Eric\OneDrive\Productivity\E.R.I.C\PROFESSIONAL\ELECTRICAL_ENGINEERING_GENERAL\Training_Modules\01_LDO_Regulator\LTSpice\Stage05_TB_Full_LDO\LM358.lib
C:\Users\Eric\OneDrive\Productivity\E.R.I.C\PROFESSIONAL\ELECTRICAL_ENGINEERING_GENERAL\Training_Modules\01_LDO_Regulator\LTSpice\Stage05_TB_Full_LDO\TIP42C.lib
C:\Users\Eric\AppData\Local\LTspice\lib\sub\TL431.sub

